9
Properties=species:S:1:pos:R:3 -167510.9957431333=T pbc="F F F"
C        1.17050000       0.22870000      -0.37920000
C        0.00000000      -0.64140000       0.00010000
C       -1.17060000       0.22880000       0.37920000
O       -2.23310000       0.08750000      -0.17700000
O        2.23300000       0.08760000       0.17710000
H        1.06040000       0.97530000      -1.15170000
H       -0.27430000      -1.27080000      -0.84640000
H        0.27430000      -1.27050000       0.84690000
H       -1.05920000       0.97870000       1.14840000
